<?xml version="1.0" encoding="UTF-8"?>
<routes>
  <vType id="taxi" vClass="taxi" length="4.0" width="1.6" color="0,255,0" speedFactor="1.2" sigma="0.5" lcStrategic="1.0" lcCooperative="0.1" lcSpeedGain="1.5" accel="2.5" decel="4.5" emergencyDecel="9.0"/>
  <vType id="bg" vClass="passenger" length="4.5" width="1.8" color="255,255,0" speedFactor="0.8" sigma="0.8" minGap="2.5" lcStrategic="1.0" lcCooperative="1.0" lcSpeedGain="0.1" accel="1.5" decel="3.0"/>
  <route id="bg_r_bg_55" edges="5078 1295 2546 -17622 9517 9509 15573 31125 5678 5676 3208 5675 6840 2717 87 3771 6590 29071 29072 6592 1471 1311 6042 1951 18220 5360 1657 1423 6438 5878 15281 1505 15284 6583 5830 5828 29234 6366 2095 4659 6797 11718 11730 11715 11694 16080 11697 11689 11702 11699 16079 11704 11692 17036 11696 11691 19312 5033 6546 19833 3568 6760 19832 6485 5255 2642 22753 5985 1759 6687 5661 29077 3466 16139 4434 29065 1909 29066 4033 29067 16281 5723 3551 29017 6762 3999 6327 8893 16283 5953 3346 -25686 22268 482" />
  <vehicle id="bg_55" type="bg" route="bg_r_bg_55" depart="0" departLane="best" departSpeed="max" departPos="random" />
  <route id="taxi_r0" edges="6850 5934 6811 5107 10721 21152 5913 5914 15791 111 -19190 14620 5149 3666 4175 15960 9470 9469 11484 17248 3633 17249 9223 -17253 -16089 -20742 -23126 -25996 11496 11494 11491 11498 11501 11502 11504 11514 11506 11513 11510 -27464" />
  <vehicle id="taxi_0" type="taxi" route="taxi_r0" depart="0" departLane="best" departSpeed="max" departPos="random" />
  <route id="taxi_r1" edges="13687 6400 6402 3589 20796 84 6516 6517 16233 1318 16494 6046 1957 6519 16237 3235 4461 16239 3153 5319 16245 4456 4670 4668 3171 3174 3175 3177 3179 3181 3183 3185 3187 3189 3191 3193 3195 3197 3199 3200 3203 3205 1921 1919 17301" />
  <vehicle id="taxi_1" type="taxi" route="taxi_r1" depart="0" departLane="best" departSpeed="max" departPos="random" />
  <route id="taxi_r2" edges="1470 -20815 1471 1311 6042 1951 18220 5359 5362 3236 1660 1653 1426 3238 3239 3240 3241 3243 3244 337 3230 317 3246 3146 3149 3151 3153 5319" />
  <vehicle id="taxi_2" type="taxi" route="taxi_r2" depart="0" departLane="best" departSpeed="max" departPos="random" />
  <route id="taxi_r3" edges="-2694 -2691 -2689 -28201 -28198 2688 -14987 -13565 -13567 -13566 -27639 -16627 -14716 2613 2636 15046 11518 11508 1862 11512 4818 16092 4815 4813 11692 17036 11696 11691 22712 11713 11710 31162 -17178 2049 2051 2053 2055 13612" />
  <vehicle id="taxi_3" type="taxi" route="taxi_r3" depart="0" departLane="best" departSpeed="max" departPos="random" />
  <route id="taxi_r4" edges="-11165 -19419 -18412 5699 5708 -18398 1957 6519 16237 3235 4461 16239 3153 5319 16245 4456 4670 4668 3171 3174 3175 3177 3179 3181 3183" />
  <vehicle id="taxi_4" type="taxi" route="taxi_r4" depart="0" departLane="best" departSpeed="max" departPos="random" />
  <route id="taxi_r5" edges="3502 9200 1405 3504 2050 11729 11708 16074 11722 11712 11727 19310 598 16204 6089 6515 4809 5635 6857 166 29142 8211" />
  <vehicle id="taxi_5" type="taxi" route="taxi_r5" depart="0" departLane="best" departSpeed="max" departPos="random" />
  <route id="taxi_r6" edges="5933 20576 4334 4336 2447 -15052 -18015 -18014 -18632 -18631 111 -19190 14620 5149 3667 3668 2032 3523 3670 9212 20680 3672 16975 3673 3675 3676" />
  <vehicle id="taxi_6" type="taxi" route="taxi_r6" depart="0" departLane="best" departSpeed="max" departPos="random" />
  <route id="taxi_r7" edges="20285 1274 3285 17305 1920 3284 17309 3281 3280 20294 20325 2012 2010 2008 2006 17569 2003 2002 19524 1731 29207 1729 1727 1725 1722 28302 3475 5924 31218 6708 4038 27191 5417 17234 17237 17231 -17714" />
  <vehicle id="taxi_7" type="taxi" route="taxi_r7" depart="0" departLane="best" departSpeed="max" departPos="random" />
  <route id="taxi_r8" edges="17152 17167 17147 -16155 -16679 -16676 -14627 3692 26583 2666 5080 26592 601 6629 1340 4021 6017 1914 4426 1266 3986 5995 1749 49 52 2115 3434 2421 2435 2566 1732 19522 19524 1731 29207 1729 1727 1723 3260 20249" />
  <vehicle id="taxi_8" type="taxi" route="taxi_r8" depart="0" departLane="best" departSpeed="max" departPos="random" />
  <route id="taxi_r9" edges="9206 3518 11498 11501 11502 3643 6854 2153 2948 5403 6853 16081 961 13531 5920 19322 2522 5921 3418 4088 5917 16084 16854 1928 1930 1932 1726 1934 1893 1936 1937 2002 19525 1999" />
  <vehicle id="taxi_9" type="taxi" route="taxi_r9" depart="0" departLane="best" departSpeed="max" departPos="random" />
  <route id="taxi_r10" edges="9186 9204 1334 1396 9206 3517" />
  <vehicle id="taxi_10" type="taxi" route="taxi_r10" depart="0" departLane="best" departSpeed="max" departPos="random" />
  <route id="taxi_r11" edges="-26633 63 64 29988 15468 15452 15457 15479 2028 8166 15454 7700 8176" />
  <vehicle id="taxi_11" type="taxi" route="taxi_r11" depart="0" departLane="best" departSpeed="max" departPos="random" />
  <route id="taxi_r12" edges="17164 17162 4003 3936 2696 3622 3995 3997 4833 3548 4832 1905" />
  <vehicle id="taxi_12" type="taxi" route="taxi_r12" depart="0" departLane="best" departSpeed="max" departPos="random" />
  <route id="taxi_r13" edges="6419 6858 1743 25438 1741 1739 1737 31236 1734 1732 19522 19524 1731 29207 1729 1727 1725 1722 28302 3475 5924 31218 6708 4038 27191 5417 17234 17237 17230 17212 6362 -17439 -12191 -12190 -27184 -27182 -27187 -27173 19207 5394 5392 5391 5389 5387 1655 29364 17645 8160 12804 10721 21152 5912" />
  <vehicle id="taxi_13" type="taxi" route="taxi_r13" depart="0" departLane="best" departSpeed="max" departPos="random" />
  <route id="taxi_r14" edges="6853 16081 961 13531 5920 19322 2522 5921 3418 4088 5917 16084 16855 1531 1532 1533 1535 1537 1539 1541 53 1542 29346 1546 1547 31333 1268 1549 1550 1552 1554 1342 1557" />
  <vehicle id="taxi_14" type="taxi" route="taxi_r14" depart="0" departLane="best" departSpeed="max" departPos="random" />
  <route id="taxi_r15" edges="3264 20258 3186 6360 6657 3184 3262 1933 1728 1998 1370 1534 10991 10989" />
  <vehicle id="taxi_15" type="taxi" route="taxi_r15" depart="0" departLane="best" departSpeed="max" departPos="random" />
  <route id="taxi_r16" edges="5149 3666 4175 15960 9470 -15974 -14669 -26672 -26676 -29236 -13013 2496 22715 2499 2501 2503 2505 16891" />
  <vehicle id="taxi_16" type="taxi" route="taxi_r16" depart="0" departLane="best" departSpeed="max" departPos="random" />
  <route id="taxi_r17" edges="6692 -27585 -27589 -16561 -16553 -16570 -16558 -25466 -25469 -25473 -25477 -25481 4359 16075 5870 6306 31157 30415 31158 11709 2046 3508 1401 1399 13009 2081 -18092 1329 1332" />
  <vehicle id="taxi_17" type="taxi" route="taxi_r17" depart="0" departLane="best" departSpeed="max" departPos="random" />
  <route id="taxi_r18" edges="1910 -11768 -16023 -16027 -27623 -27577 -27568 -27565 -27557 -27561 -27550 -25484 -27543 -27535 -27539 -16574 11724 16073 13700 13698 4359 16075 5870 6306 31157 30415 31158 11709 2046 3508 9190 2075 4422 4420 4418 6577 19306 22718 3730 6308 6575 11477 11478 -9471 -15966 -18649 -18652 -14623 -19229 14619 -15841 110 2409 5147 4311 15053 4339 1262 561 5163 2720 1431 5161 4645 1291" />
  <vehicle id="taxi_18" type="taxi" route="taxi_r18" depart="0" departLane="best" departSpeed="max" departPos="random" />
  <route id="taxi_r19" edges="-26638 2022 2020 3624 2223 1292 12810 5160 -17105 -26617 -18024 -18020 5145 566 4344 13228 2408 2415 3841 8087 5133 10870 3525 9475 -23992" />
  <vehicle id="taxi_19" type="taxi" route="taxi_r19" depart="0" departLane="best" departSpeed="max" departPos="random" />
  <route id="taxi_r20" edges="1424 1426 3238 3239 3240 3241 3243 3244 337 3230 317 3246 340 2085 3248 3250 3251 3252 3254 3257 3259 20263 3261 3263 16404 3265 3267 16406 3268 3270 16408 3273 3275 16410 3276 3278 20293 2979 18590 20877" />
  <vehicle id="taxi_20" type="taxi" route="taxi_r20" depart="0" departLane="best" departSpeed="max" departPos="random" />
  <route id="taxi_r21" edges="5951 5727 4325 -15107 -15103 -15099 -3547 -5719 -6092 -14994 -14991 -14987 -13565 -13567 -13566 -27639 -16627 -14716 2613 2636 15046 11518 11508 1862 3646 10960 3645 11687 2059 3641 3519 3639 16090 1392 11495 2112 3637 3636 18303 18306 11483 11481 11477 11478 -9471 -15966 -18649 -18652 -14623 -19229 14619 -15841 110 2409 5147 4312 4340 4343 565" />
  <vehicle id="taxi_21" type="taxi" route="taxi_r21" depart="0" departLane="best" departSpeed="max" departPos="random" />
  <route id="taxi_r22" edges="20252 3193 3194 3274 2010 2008 2006 17569 2003 2002 19524 1731 29207 1729 1727 1725 1722 28302 3475 5924 31218 6708 4038 27191 5419 4664 1502 1522 4084 3415 2088 3414" />
  <vehicle id="taxi_22" type="taxi" route="taxi_r22" depart="0" departLane="best" departSpeed="max" departPos="random" />
  <route id="taxi_r23" edges="11535 16962 -22733 -1326 3732 22724 22717 6877 19189 20680 3671" />
  <vehicle id="taxi_23" type="taxi" route="taxi_r23" depart="0" departLane="best" departSpeed="max" departPos="random" />
  <route id="taxi_r24" edges="8191 8211 8229 18249 18237 16035 -18245 -16031 -16023 -16027 -27623 -27577 -27568 -27565 -27557 -27561 -27550 -25484 -27543 -27535 -27539 -16574 11724 16073 13700 13698 4359 16075 5870 6306 31157 30415 31158 11709 2046 3508 9190 2075 4422 4420 4418 6577 19306 22718 3730 6308 6575 11477 11478 -9471 -15966 -18649 -18652 -14623 -19229 14619 -15841 110 2409 5147 4312 4341 563 6677 1434 6588 62 2025 2568 469 8135 10253 20767" />
  <vehicle id="taxi_24" type="taxi" route="taxi_r24" depart="0" departLane="best" departSpeed="max" departPos="random" />
  <route id="taxi_r25" edges="91 94 5932 6674 923 3771 6590 29071 29072 6592 1471 1311 6042 1951 18220 5359 5362 3236 1660 1653 1426 3238 3239 3240 3241 3243 3245 3159" />
  <vehicle id="taxi_25" type="taxi" route="taxi_r25" depart="0" departLane="best" departSpeed="max" departPos="random" />
  <route id="taxi_r26" edges="19312 5033 6546 19833 3568 6760 19832 6485 5255 2642 22753 5985 1759 6687 5661 29077 3466 16139 4434 29065 1909 29066 4033 29067 16281 5723 3551 29017 6762 3999 6327 8893 16283 -12656 4835 25633 4330" />
  <vehicle id="taxi_26" type="taxi" route="taxi_r26" depart="0" departLane="best" departSpeed="max" departPos="random" />
  <route id="taxi_r27" edges="5080 26592 600 844 28202 843 841 17142 17158 17138 17156 987 985 983 981 978 1752 -27639 -16627 -14716 2613 2636 15046 11518 11508 1862 3646 10960 3645 11687 2059 3641 3519 3639 16090 1392 11495 2112 3637 3636 18303 18306 11483 11481 11477 11478 -9471 -15966 -18649 4175" />
  <vehicle id="taxi_27" type="taxi" route="taxi_r27" depart="0" departLane="best" departSpeed="max" departPos="random" />
  <route id="taxi_r28" edges="3409 5383 16673 10929 10926 -12707 -18504 1448 4838 18501 3345 4835 25633 4330 10994 16152 3997 4833 3548 4832 1905 16142 4431 3464 4830 4828 1757 4825 16633 4987 5983 5410 977 975 973 971 969 6037 6802 6079 2441 -27362" />
  <vehicle id="taxi_28" type="taxi" route="taxi_r28" depart="0" departLane="best" departSpeed="max" departPos="random" />
  <route id="taxi_r29" edges="5986 5984 4826 2615 2640 4824 4822 4820 3565 4818 16092 4815 4814 4812 3643 6854 2153 2948 5403 6853 16081 11716 959 958 956 953 951 950 948 947 945 943 19210 16252 939 938 936 935 16251 8023 12795 12797 12798 8022 26509 933 929 926 924 89 921 2716 2718 3214 3212 3210 6400 6402 19406 9516 -17634 -16211 2545 -18405" />
  <vehicle id="taxi_29" type="taxi" route="taxi_r29" depart="0" departLane="best" departSpeed="max" departPos="random" />
  <route id="taxi_r30" edges="3334 381 17212 6363 18417 1517 1519 1521 1524 1525 18268 14646 16855 1531 1532 1533 1535 1537 1539 1541 53 1542 29346 1546 1547 31333 1268 -27803 4424 3908 986" />
  <vehicle id="taxi_30" type="taxi" route="taxi_r30" depart="0" departLane="best" departSpeed="max" departPos="random" />
  <route id="taxi_r31" edges="22169 2139 3739 4443 2141 2936 19822 4445 579 19208 949 4446 29234 6367 6032" />
  <vehicle id="taxi_31" type="taxi" route="taxi_r31" depart="0" departLane="best" departSpeed="max" departPos="random" />
  <route id="taxi_r32" edges="1759 6687 5660 5662 5664 -27577 -27568 1764 41 -16776 -16787 -16775 -16770 -16038 -16788" />
  <vehicle id="taxi_32" type="taxi" route="taxi_r32" depart="0" departLane="best" departSpeed="max" departPos="random" />
  <route id="taxi_r33" edges="-27868 20681 3121 2495 19305 3726 3725 29341 29342 -18092 -18094 -20700 6372 2061 2111 2109 2107 2105 2103 586 2101 2100 955 2098 2096 2094 2092 2089 1519 1521 1524 1525 18268 14646 16855 1531 1532 1533 1535 1537 1539 -16838 -16830 2117 2119 2121 1746 2122 2124 2126 1272 2127 2984 29347 2987 8890 17089" />
  <vehicle id="taxi_33" type="taxi" route="taxi_r33" depart="0" departLane="best" departSpeed="max" departPos="random" />
  <route id="taxi_r34" edges="7845 290 293 297 336 2817 3159 7802 16235 7804 29312 7805 31328 16234 7801 13534 8772 7798 23963 19406 9517 9509 15573 31125 5679" />
  <vehicle id="taxi_34" type="taxi" route="taxi_r34" depart="0" departLane="best" departSpeed="max" departPos="random" />
  <route id="taxi_r35" edges="5876 3241 3243 3244 338 15175 2812 2810 2809 1512 5828 29234 6366 2095 4659 6797 11718 11730 11715 11694 16080 11697 11689 11702 11699 16079 11704 11692 17036 11696 11691 22712 11713 11710 31162 30412 11729 11708 16074 4358 6549 3572 6703 6488 5258 2646 12246 5988 -16561" />
  <vehicle id="taxi_35" type="taxi" route="taxi_r35" depart="0" departLane="best" departSpeed="max" departPos="random" />
  <route id="taxi_r36" edges="7801 13534 6516 6517 16233 1318 16494 6046 1957 6519 16237 3235 4461 16239 3153 5319 16245 4456 4670 4668 3171 3174 3175 3177 3179 3181 3183 3185 3187 3189 3191 3193 3195 3197 3199 3200 3203 3205 1922" />
  <vehicle id="taxi_36" type="taxi" route="taxi_r36" depart="0" departLane="best" departSpeed="max" departPos="random" />
  <route id="taxi_r37" edges="5700 1322 1319 -24089 -7800 7801 13534 8772 -16798 -18407 -18406" />
  <vehicle id="taxi_37" type="taxi" route="taxi_r37" depart="0" departLane="best" departSpeed="max" departPos="random" />
  <route id="taxi_r38" edges="1478 -26055 -26002 11493 1394 9187 9186 9201 29225 29226 3513 2042 23014 22713 22712 11713 11710 31162 30412 11729 11708 16074 11722 11712 11727 19310 11725 6551 3574 6705 6481 5260 2647 6706 5990 1765 6694 5666 3473 4436 1911 3683" />
  <vehicle id="taxi_38" type="taxi" route="taxi_r38" depart="0" departLane="best" departSpeed="max" departPos="random" />
  <route id="taxi_r39" edges="4467 2430 2122 2124 2126 1272 2127 2985 3288 17094 6621 1277 1856 6727" />
  <vehicle id="taxi_39" type="taxi" route="taxi_r39" depart="0" departLane="best" departSpeed="max" departPos="random" />
  <route id="taxi_r40" edges="3436 6360 6657 3184 3263 16404 3265 3266 1937 2001 1732 19522" />
  <vehicle id="taxi_40" type="taxi" route="taxi_r40" depart="0" departLane="best" departSpeed="max" departPos="random" />
  <route id="taxi_r41" edges="1511 1513 -12191 4449 6365 2515 6367 6031 954 6369 5397 584" />
  <vehicle id="taxi_41" type="taxi" route="taxi_r41" depart="0" departLane="best" departSpeed="max" departPos="random" />
  <route id="taxi_r42" edges="340 2085 3248 3250 3251 3252 3254 3257 3259 20263 3260 20249 3182 6842 6520" />
  <vehicle id="taxi_42" type="taxi" route="taxi_r42" depart="0" departLane="best" departSpeed="max" departPos="random" />
  <route id="taxi_r43" edges="4091 3423 6409 2524 13498 6800 6036 967 5406 11508 1862 3646 10960 3645 11687 2059 3641 3519 3639 16090 1392 11495 2112 3638 -20740 -20738 11535 16962 -22733 -1326 3732 22724 22717 6877 19189 20680 3672 -27865" />
  <vehicle id="taxi_43" type="taxi" route="taxi_r43" depart="0" departLane="best" departSpeed="max" departPos="random" />
  <route id="taxi_r44" edges="3677 -27841 -19344 -19336 3130 -20789 2503" />
  <vehicle id="taxi_44" type="taxi" route="taxi_r44" depart="0" departLane="best" departSpeed="max" departPos="random" />
  <route id="taxi_r45" edges="3182 6843 4392 5926 7795 16247 7856 7858 16240 7860 7859 7802 16235 7804 29312 7805 31328 16234 7801 13534 8772 7798 23963 7796 7813 3592 23962" />
  <vehicle id="taxi_45" type="taxi" route="taxi_r45" depart="0" departLane="best" departSpeed="max" departPos="random" />
  <route id="taxi_r46" edges="2150 2149 -26055 -26002 1392 11495 2112 3637 3636 18303 18306 11483 11481 3632 2489 3116 3524 2444 15084 2446 -26667 10871 7722" />
  <vehicle id="taxi_46" type="taxi" route="taxi_r46" depart="0" departLane="best" departSpeed="max" departPos="random" />
  <route id="taxi_r47" edges="10694 29359 567 17099 16486 -17655 -22187 -22691 -9471 9470 -15974 -14669 -26672 -26676 -29236 -13013 2496 22715 2499 2500 4361 2069 13583 14004" />
  <vehicle id="taxi_47" type="taxi" route="taxi_r47" depart="0" departLane="best" departSpeed="max" departPos="random" />
  <route id="taxi_r48" edges="22724 22718 3730 6308 6575 11484 17248 3633 17249 9223 -17252 16098 4443 2141 2936 19822 4445 579 19208 949 4446 4448 2513 4450 14401 4452 15219 454 340 2085 3248 3250 3251 3252 3254 3257 3259 20263 3261 3263 16404 3265 3267 16406 3268 3270 16408 3273 3275 16411 20254 3196" />
  <vehicle id="taxi_48" type="taxi" route="taxi_r48" depart="0" departLane="best" departSpeed="max" departPos="random" />
  <route id="taxi_r49" edges="842 6628 1556 4184 25440 1344 4023 25442 4182" />
  <vehicle id="taxi_49" type="taxi" route="taxi_r49" depart="0" departLane="best" departSpeed="max" departPos="random" />
  <route id="taxi_r50" edges="20249 3183 3184 3263 16404 3265 3267 16406 3268 3270 16408 3273 3274 2009 6858" />
  <vehicle id="taxi_50" type="taxi" route="taxi_r50" depart="0" departLane="best" departSpeed="max" departPos="random" />
  <route id="taxi_r51" edges="3151 3153 5319 16245 4456 4670 4668 3172 4667 3249 17235 4664 1502 1522 4083 4085 11735 11720 19320 11733 11718 11730 11715 11694 16080 11697 11689 11702 11699 16079 11704 11692 17036 11696 11691 22712 11713 11710 31162 30412 11729 11708 16074 11722 11712 11727 19310 598 16204 6554 3576 6728 6483 5263 5264" />
  <vehicle id="taxi_51" type="taxi" route="taxi_r51" depart="0" departLane="best" departSpeed="max" departPos="random" />
  <route id="taxi_r52" edges="-18084 3723 2080 29181 1398 9191 9189 16491 9193 9196 9198 22671 2967 591 2969 2971 2972 2974 1415 1414 3520" />
  <vehicle id="taxi_52" type="taxi" route="taxi_r52" depart="0" departLane="best" departSpeed="max" departPos="random" />
  <route id="taxi_r53" edges="-27666 -14987 -13565 -13567 -13566 -27639 -16627 -14716 2613 2636 15046 11518 11508 1862 3646 10960 3645 11687 2059 3641 3519 3639 16090 1391 1478 1480 1482 1484 1486 2102 5396 4111 19207 5394 5392 5391 5389 5387 1655 29364 17645 8160 12804 10721 21152" />
  <vehicle id="taxi_53" type="taxi" route="taxi_r53" depart="0" departLane="best" departSpeed="max" departPos="random" />
  <route id="taxi_r54" edges="1765 -27568 -27565 -27557 -27561 -27550 -25484 -27543 -27535 -27539 -16574 11724 16073 13700 13698 4359 16075 5870 6306 31157 30415 31158 11709 2046 3508 9190 2075 4422 4420 4418 6577 19306 22718 3730 6308 6575 11477 11478 11475 22174" />
  <vehicle id="taxi_54" type="taxi" route="taxi_r54" depart="0" departLane="best" departSpeed="max" departPos="random" />
  <route id="taxi_r55" edges="10993 -15103 -15099 -3547 -5719 -6092 -14994 -14991 -14987 -13565 -13567 -13566 -27639 5983 5410 977 975 973 971 970 968 966 964 10971 29110 29109 16488 961 13531 5920 19322 2522 -19475 -26115 -26144 2090 3413 1516 17212 6362 4452 15219 454 341 4453 16242 15218 3167 3150 3165" />
  <vehicle id="taxi_55" type="taxi" route="taxi_r55" depart="0" departLane="best" departSpeed="max" departPos="random" />
  <route id="taxi_r56" edges="4442 5427 2142 2140 2138 2137 2135 -9471 -15966 -18649 4174 -10880" />
  <vehicle id="taxi_56" type="taxi" route="taxi_r56" depart="0" departLane="best" departSpeed="max" departPos="random" />
  <route id="taxi_r57" edges="6812 557 559 6851 1747 4315 4337 1263 -22281 5163 2720 1431 5161 4646 10583 744 -23267 2026 2028 8167 5140" />
  <vehicle id="taxi_57" type="taxi" route="taxi_r57" depart="0" departLane="best" departSpeed="max" departPos="random" />
  <route id="taxi_r58" edges="3610 20681 3121 2495 19305 3726 3725 29341 29342 -18092 -18094 -20700 6372 2061 2111 2109 2107 2105 2103 586 2101 2100 955 2098 2096 2094 2092 2089 1519 1521 1524 1525 18268 14646 16854 1928 1930 1932 1726 1934 1893 1936 1938 8143 3268 3270 16408 3273 3275 16411 20254 3197 3199 3200 3202" />
  <vehicle id="taxi_58" type="taxi" route="taxi_r58" depart="0" departLane="best" departSpeed="max" departPos="random" />
  <route id="taxi_r59" edges="-22292 -22298 4311 15052 10263 -17293 -18009 6850 5934 6811 12800 15325 8021 6592 1471 1311 6042 1951 18220 5360 1657 1423 6438 5878 15281 1505 15284" />
  <vehicle id="taxi_59" type="taxi" route="taxi_r59" depart="0" departLane="best" departSpeed="max" departPos="random" />
  <route id="taxi_r60" edges="4460 7859 7802 16235 7804 29312 6047 19379 1316 1474 1472 1470 12798 8022 26509" />
  <vehicle id="taxi_60" type="taxi" route="taxi_r60" depart="0" departLane="best" departSpeed="max" departPos="random" />
  <route id="taxi_r61" edges="6379 -27768 6380 -16987 -27835 -27841 -22452 -20334 -26173 -27865 -27868 -26696 -22751 -26700 -20703 -10885 -10880 -14623 -19229 14619 -15841 -17658 15790 5912 7003 559 6851 1747 4316 4317 4320 4322" />
  <vehicle id="taxi_61" type="taxi" route="taxi_r61" depart="0" departLane="best" departSpeed="max" departPos="random" />
  <route id="taxi_r62" edges="6420 6422 6523 6861 6421 6874 3435" />
  <vehicle id="taxi_62" type="taxi" route="taxi_r62" depart="0" departLane="best" departSpeed="max" departPos="random" />
  <route id="taxi_r63" edges="-20740 5425 -20742 -23126 -25996 11496 11494 11491 11498 11501 11502 3643 6854 2153 2948 5403 6853 16081" />
  <vehicle id="taxi_63" type="taxi" route="taxi_r63" depart="0" departLane="best" departSpeed="max" departPos="random" />
  <route id="taxi_r64" edges="1917 -20330 -26379 -26378 -26393 -26387 -27269 -27268 2118 2114 1540 3720 3718 6808 6803 6039 974 5409 4019 2613 2636 15047 5089 4823 5254 5256 5259 5260" />
  <vehicle id="taxi_64" type="taxi" route="taxi_r64" depart="0" departLane="best" departSpeed="max" departPos="random" />
  <route id="taxi_r65" edges="11727 19310 11724 16073 13700 13698 4359 16075 5870 6306 31157 30415 31158 16971 16864 22710 28941 6313 4956 4812 3643 6854 2153 2948 5403 6853 16081 961 13531 5920 19322 2522 5921 3418 4088 5917 16084 16854 1928 1930 1932 1726 1934 1893 1936 1938 8143 3269 20245" />
  <vehicle id="taxi_65" type="taxi" route="taxi_r65" depart="0" departLane="best" departSpeed="max" departPos="random" />
  <route id="taxi_r66" edges="341 4453 16242 15218 3167 3150 3165 3163 3161 2817 3158 3157 19381 3155 1649 19382 1956 19379 1316 1474 1472 1470 12798 8022 26509 933 929 926 924 89" />
  <vehicle id="taxi_66" type="taxi" route="taxi_r66" depart="0" departLane="best" departSpeed="max" departPos="random" />
  <route id="taxi_r67" edges="3997 4833 3548 4832 1905 16142 4431 3464 4830 4828 1757 4826 2615 2640 4824 4822 4820 3565 4818 16092 4815 4814 4812 11687 11502" />
  <vehicle id="taxi_67" type="taxi" route="taxi_r67" depart="0" departLane="best" departSpeed="max" departPos="random" />
  <route id="taxi_r68" edges="-17439 14401 4451 17444 13390 2813 5473 16254 6468" />
  <vehicle id="taxi_68" type="taxi" route="taxi_r68" depart="0" departLane="best" departSpeed="max" departPos="random" />
  <route id="taxi_r69" edges="6092 5718 2692 17158 17138 17156 -13625 3907 3458 1266 3986 5995 1749 49 52 2115 3434 2421 2435 2566 1732 19522 19524 1731 29207 1729" />
  <vehicle id="taxi_69" type="taxi" route="taxi_r69" depart="0" departLane="best" departSpeed="max" departPos="random" />
  <route id="taxi_r70" edges="925 4332 4321 10875 10868 -18009 -18008 -15782 7002 5914 15791 111 -19190 14620 5149 3666 4175 15960 9470 -15974 -14669 -26672 -26676 -29236 -13013 2496 22715 2499 2501 2503 2504 587 589 590 593 22789 595 597 11724 16073 13700" />
  <vehicle id="taxi_70" type="taxi" route="taxi_r70" depart="0" departLane="best" departSpeed="max" departPos="random" />
  <route id="taxi_r71" edges="2099 4655 6929 960 6034 6798 2519 6635 3417 4086 4034 1525 18268 14646 16855 1531 1532 1533 1535 1537 1539 1541 53" />
  <vehicle id="taxi_71" type="taxi" route="taxi_r71" depart="0" departLane="best" departSpeed="max" departPos="random" />
  <route id="taxi_r72" edges="-15103 -15099 -3547 -5719 -6092 -14994 -14991 -14987 -13565 -13567 -13566 -27639 5983 5410 977 975 973 971 970 968 966 964 10971 29110 29109 16488 11716 959 958 956 953 951 950 948 947 945 943 19210 16252 939 938 936 935 16251 8024 1952 1953 1955 7803 1959 1961 5354" />
  <vehicle id="taxi_72" type="taxi" route="taxi_r72" depart="0" departLane="best" departSpeed="max" departPos="random" />
  <route id="taxi_r73" edges="3181 3183 3184 3262 1933 1728 1998 1370 1535 1537 1539 1541 53 1542 29346 1546 1547 31333 1268 1549 1550 1552 1554 1341 1339 841 3545 16153 6813 4002 6508 4324 -18466 -29039" />
  <vehicle id="taxi_73" type="taxi" route="taxi_r73" depart="0" departLane="best" departSpeed="max" departPos="random" />
  <route id="taxi_r74" edges="16891 -22785 -16986 -19368 -29217 -29219 -19360 -19367 -18079 -18083 -18084 -18092 -18094 -20700 6372 2061 -25996 11496 11494 11491 11498 11501 11502 3643 6854 2153 2948 5403 6853 16081 961 13531 5920 19322 2522 5921 3418 4087 10981" />
  <vehicle id="taxi_74" type="taxi" route="taxi_r74" depart="0" departLane="best" departSpeed="max" departPos="random" />
  <route id="taxi_r75" edges="3592 23962 83 84 6516 6517 16233 1318 16494 6047 19378 6045 6042 -22613 -18131 -19893 -14777 29359 567 17099 16486 -17655 -22187 -22691 11474" />
  <vehicle id="taxi_75" type="taxi" route="taxi_r75" depart="0" departLane="best" departSpeed="max" departPos="random" />
  <route id="taxi_r76" edges="6693 -27589 -16561 -16553 -16570 -16558 -25466 -25469 -25473 -25477 -25481 4359 16075 5870 6306 31157 30415 31158 16971 16864 22710 28941 6313 4956 4812 3643 6854 2153 2948 5403 6853 16081 11716 959 958 956 953 951 950 948 947 945 943 19210 16252 939 938 936 935 16251 8023 12795 12797 12798 8022 26509 933 929 926 924 89 921 2716 2718 3214 3212 3210 6400 6402 19406 9517 13462 31313 13465" />
  <vehicle id="taxi_76" type="taxi" route="taxi_r76" depart="0" departLane="best" departSpeed="max" departPos="random" />
  <route id="taxi_r77" edges="4322 929 925 4332 4321 10875 10868 -18009 -18008 -15782 7002 5914 15791 111 -19190 14620 5149 3667 3668 2032 3523 3670 9212 20680 3672 16975 3673 3674 3126 9456" />
  <vehicle id="taxi_77" type="taxi" route="taxi_r77" depart="0" departLane="best" departSpeed="max" departPos="random" />
  <route id="taxi_r78" edges="20294 20325 2012 2010 2008 2006 17569 2003 2002 19525 2000 1998 1371 1997 1996 1530 10984 10981 10978 10977 10974 10973 10970 10969 10966 10964 10962 11702 11699 16079 11687 2059 3641 3519 3639 16090 1392 11495 2112 3638 6373 6312 1330 3722 6374 4422 4419" />
  <vehicle id="taxi_78" type="taxi" route="taxi_r78" depart="0" departLane="best" departSpeed="max" departPos="random" />
  <route id="taxi_r79" edges="92 6674 923 3771 6590 29071 29072 6592 1471 1311 6042 1951 18220 5360 1657 1423 6438 5878 15281 1504 29081 1507 1509 1511 1513 14402 1514 18417 1517 1519 1521 1524 1525 18268 14646 16854 1928 1930 1932 1726 1933" />
  <vehicle id="taxi_79" type="taxi" route="taxi_r79" depart="0" departLane="best" departSpeed="max" departPos="random" />
  <route id="taxi_r80" edges="3211 3208 5675 6840 2717 87 3771 6590 29071 29072 6592 1471 1311 6042 1951 18220 5360 1657 1423 6438 5878 15281 1504 29081 1507 1509 1511 1513 14402 1514 18417 1517 1519 1521 1524 1525 18268 14646 16855 1531 1532 1533 1535 1537 1539 -16838 -16830 2117 2119 2121 1746 2122 2123 3988" />
  <vehicle id="taxi_80" type="taxi" route="taxi_r80" depart="0" departLane="best" departSpeed="max" departPos="random" />
  <route id="taxi_r81" edges="3720 3719 2454 13520 2433 10992 10991 10989 10987 10985 11736 6171 4034 1526 4038 27191 5417 17234 17237 17230 17212 6362 4451 17444 13390 2813 5473 16254 6468 16253 5875 6437 1425 1658 1656 17396" />
  <vehicle id="taxi_81" type="taxi" route="taxi_r81" depart="0" departLane="best" departSpeed="max" departPos="random" />
  <route id="taxi_r82" edges="3547 -3547 -5719 -6092 -14994 -14991 -14987 -13565 -13567 -13566 -27639 5983 5410 977 975 973 971 970 968 966 964 10971 29110 29109 16488 961 13531 5920 19322 2522 -19475 -26115 -26144 2090 3413 1516 17212 6362 4452 15219 454 341 4453 16242 15218 3167 3149 3152 5316" />
  <vehicle id="taxi_82" type="taxi" route="taxi_r82" depart="0" departLane="best" departSpeed="max" departPos="random" />
  <route id="taxi_r83" edges="1314 1316 1474 1472 1471 1311 6042 1951 18220 5360 1657 1423 6438 5878 15281 1505 15284 6583 5830 5828 29234 6366 2095 4660 4657 957 4656 4653 18291 2945" />
  <vehicle id="taxi_83" type="taxi" route="taxi_r83" depart="0" departLane="best" departSpeed="max" departPos="random" />
  <route id="taxi_r84" edges="1536 10992 10990 4091 3423 6409 2523 6079 2441 2455 6808 6803 6039 974 5409 4019 2612 4984 4986 16635 14652 1756 1758 1760 1762 1764 41 -16776 5992" />
  <vehicle id="taxi_84" type="taxi" route="taxi_r84" depart="0" departLane="best" departSpeed="max" departPos="random" />
  <route id="taxi_r85" edges="4413 -18408 -15246 3589 20796 84 6516 6517 16233 1318 16494 6046 1957 6518 19380 3240 3241 3243 3244 338 15175 2812 2810 2808 3904 3906 14402 1514 18417 1517 1519 1521 1524 1525 18268 14646 16855 1531 1532 1533 1535 1537 1539 1541 53 1542 29346 1546 1547 31333 1267 1269" />
  <vehicle id="taxi_85" type="taxi" route="taxi_r85" depart="0" departLane="best" departSpeed="max" departPos="random" />
  <route id="taxi_r86" edges="-26393 1744 1743 25438 1741 1739 1737 31236 1734 1732 19522 19524 1731 29207 1729 1727 1725 1722 28302 3475 5924 31218 6708 4038 27191 5417 17234 17237 17230 17212 6362 4451 17444 13390 2813 5473 16254 6468 16253 5875 6437 1425 1659 31406 5362 3237 19382" />