<routes>
  <vType id="taxi" vClass="taxi" length="4.0" width="1.6" color="0,255,0" />
  <vType id="bg" vClass="passenger" length="4.5" width="1.8" color="255,255,0" />
  <route id="bg_r_bg_1999" edges="5160 -17105 -26617 -18023 -22292 -22298 -18014 -18632 -18631 111 -19190 14620 5149 3666 4175 15960 9470 9469 11484 17248 3633 17249 9223 -17253 -16089 -20742 -23126 -25996 11496 11494 11491 11498 11501 11502 11504 11514 11506 11513 11510 -27464 -27522 -27506 -27503 2612 4985 5982 1755 6091 5658 3462 4429 1902 6092 5719 3547 -3547" /><route id="bg_r_bg_1998" edges="31125 5678 5676 3208 5675 6840 2717 87 3771 6590 29071 29072 6592 1471 1311 6042 1951 18220 5360 1657 1423 6438 5878 15281 1504 29081 1507 1509 1511 1513 14402 1514 18417 1517 1519 1521 1524 1525 18268 14646 16855 1531 1532 1533 1535 1537 1539 1541 53 1542 29346 1545" /><route id="bg_r_bg_1997" edges="1938 8143 3268 3271 2006 17569 2003 2002 19525 2000 1998 1371 1997 1996 1530 10984 10981 10978 10977 10974 10973 10970 10969 10966 10964 10962 11702 11699 16079 11687 2059 3641 3519 3639 16090 1392 11495 2112 3638 -20740 -20738 11535 16962 -22733 22738" /><route id="bg_r_bg_1996" edges="1329 1331 1334 1396 9205 1391 1478 1480 1482 1485 4653" /><route id="bg_r_bg_1995" edges="50 3718 6807 5994 1751 6696 5653" /><route id="bg_r_bg_1994" edges="3905 1513 -12191 -12190 -27184 -27182 -27187 -27173 19207 5394 5392 5391 5389 5387 1655 29364 17645 8160 12804 12803 12800 15325" /><route id="bg_r_bg_1993" edges="2031 2030 3115 3118 9211 3120 3122 3125 3126 9456 3129 22783 680 6379 -27768" /><route id="bg_r_bg_1992" edges="6761 4833 3548 4832 1905 16142 4431 3464 4830 4828 1757 4826 2615 2640 4824 4822 4820 3565 4818 16092 4815 4813 -19281 -21487 -25926 -18296 -20745 6373 6312" /><route id="bg_r_bg_1991" edges="-15103 -15099 -3547 -5719 -6092 -14994 -14991 -14987 -13565 -13567 -13566 -27639 5983 5410 977 975 973 971 970 968 966 964 10971 29110 29109 16488 961 13531 11731 6033 4658 2097" /><route id="bg_r_bg_1990" edges="952 4114 4446 4448 2513 4450 14402 1514 18417 1517 1519 1521 1524 1525 18268 14646 16855 1531 1532 1533 1535 1537 1539 1541 53 1542 29346 1546 1547 31333 1268 1549 1550 1553 6016" /><route id="bg_r_bg_1989" edges="6016 1914 4424 3908 987 985 983 981 978 1752 -27639 -16627 -14716 2613 2636 15046 11518 11508 1862 3646 10960 3645 11687 2059 3641 3519 3639 16090 1392 11495 2112 3637 3636 18303 18306 11483 11481 3632 2489 3116 -20703 2032" /><route id="bg_r_bg_1988" edges="976 5994 1750 978 1752 1754 14652 1756 1758 1760 1762 1764 41 -16776 -16787 -16775 -16770 -16038 -16788 6728" /><route id="bg_r_bg_1987" edges="16247 7856 16245 4456 4670 4668 3172 4667 3249 17235 4664 1502 1521 1524 1525 18268 14646 16855 1531 1532 1533 1535 1537 1539 1541 53 1542 29346 1546 1547 31333 1268 1549 1550 1552 1554 1341 1339 841 3545 16153 6813 4002 17161" /><route id="bg_r_bg_1986" edges="2989 4182 4179 25441 4178 1270 25436 3988 1744 1743 25438 1741 1739 1737 31236 1734 1732 19522 19524 1731 29207 1729 1727 1725 1722 28302 3475 5924 31218 6708 4038 27191 5417 17234 17237 17230 17212 6362 -17439 -12191 -12190 -27184 -27182 -27187 -27173 -27166 -27101 5833 -12672 -23153 -27097 -27087 16097 18306 11483 11481 3632 2489 3116 3523 3670" /><route id="bg_r_bg_1985" edges="16385 5138" /><route id="bg_r_bg_1984" edges="3186 6360 6656 6843 4393 3180 3258 28299 28302 3475 5924 31218 6708 4038 27191 5417 17234 17237 17230 17212 6362 -17439 -12191 -12190 -27184 -27182 -27187 -27173 -27166 -27101 5833 -12672 -23153 2140 2138 2137 2135 -9471 -15966 -18649 -18652 -14623 -19229 14619 -15841 110" /><route id="bg_r_bg_1983" edges="1268 -27806 4178 1270 25436 3988 1744 1743 25438 1741 1739 1737 31236 1734 1732 19522 19524 1731 29207 1729 1727 1725 1722 28302 3475 5924 31218 6708 4038 27191 5417 17234 17237 17230 17212 6363" /><route id="bg_r_bg_1982" edges="-16038 -16788 -16786 -16783 -13722 -27787 1412 1411 1410 2968 -19368 -19361 -20789 -13021 -26179 -26158 22716 4437 4418 6577 19306 22718 3730 6308 6575 11477 11478 11475 22175 445 571 5387 1655 29364 17645 8160 12804 10720 557" /><route id="bg_r_bg_1981" edges="-26682 3115 3117 -26672 -26676 -29236 -13013 2495 19305 3726 3724 5433 4419" /><route id="bg_r_bg_1980" edges="8167 5140 469 8134 5153 5175 907 9500 3215 15596 5675 6840 2717 87 3771 6590 29071 29072 6592 1471 1311 6042 -22613 -18131 -19893 -14777 17645 8160 12804" /><route id="bg_r_bg_1979" edges="-25686 22268 482 9544 5955 6246 -8894 18237 16035 -18245 -16031 -16023 -16027 -27623 -27577 -27568 -27565 -27557 -27561 -27550 -25484 -27543 -27535 -27539 -16574 11724 16073 13700 13698 4359 16075 5870 6306 31157 30415 31158 11709 2046 3509 3511 3513 2042 23014" /><route id="bg_r_bg_1978" edges="17164 17162 17144 17160 17142 17158 17138 17156 -13625 3907 3458 1265 1267 1270 25436 3988 1744 1743 25438 1741 1738 6418 2007 3272 20252 3193" /><route id="bg_r_bg_1977" edges="5727 4325 -15107 -15103 -15099 -3547 -5719 -6092 -14994 -14991 -14987 -13565 -13567 -13566 -27639 -16627 -14716 2613 2636 15046 11518 11508 1862 11512 4818 16092 4815 4813 11692 17036 11696 11691 22712 11713 11710 31162 -17178" /><route id="bg_r_bg_1976" edges="-25477 -25481 4359 16075 5870 6306 31157 30415 31158 16971 16864 22710 28941 6313 4956 4812 3643 6854 2153 2948 5403 6853 16081 11716 959 958 956 953 951 950 948 947 945 943 19210 16252 939 938 936 935 16251 8023 12795 12797 12798 8021 6591 6633 8020 6993 21345 8772 7798 23963" /><route id="bg_r_bg_1975" edges="3503 3505 -25951 1403 1401 1399 9204 1334 1396 9205 1391 1478 1481 2107 2105 2104 4005 5430" /><route id="bg_r_bg_1974" edges="1336 1338 11691 22710 28941 6313 4956 4812 3643 6854 2153 2948 5403 6853 16081 961 13531 5920 19322 2522 5921 3418 4088 5917 16084 16854 1928 1930 1932 1726 1934 1893 1936 1938 8143 3268 3270 16408 3273 3275 16411 20254 3197 3199 3200 3203 3204 6668 3992" /><route id="bg_r_bg_1973" edges="-17864 -16776 -16787 -16775 -16770 -16038 -16788 -16786 -16783 6553 9685 11724 16073 13700 13698 4359 16075 5870 6306 31157 30415 31158 16971 16864 22710 28941 6313 4956 4812 3643 6854 2153 2948 5403 6853 16081 11716 959 958 956 953 951 950 948 947 944 6584 1506 6582 6470 5875" /><route id="bg_r_bg_1972" edges="-27841 3676 3618 3860 3478 2037 2806 683" /><route id="bg_r_bg_1971" edges="6930 6854 2153 2948" /><route id="bg_r_bg_1970" edges="9212 20681 3121 2495 19305 3726 3725 29341 29342 -18092 -18094 -20700 6372 2061 2111 2109 2107 2105 2103 586 2101 2100 955 2098 2096 2094 2092 2089 1519 1521 1524 1525 18268 14646 16854 1928 1930 1932 1726 1933 1728 1998 1370" /><route id="bg_r_bg_1969" edges="-23992 -3525 -26667 10871 7722 19257 9442 14619 -15841 110 2409" /><route id="bg_r_bg_1968" edges="3346 6764 4838 18501 3345 4835 25633 4330 10994 16152 3997 4833 3548 4832 1905 16142 4431 3464 4830 4828 1757 4826 2615 2640 4824 4822 4820 3565 4818 16092 4815 4814 4812 3643 6854 2153 2948 5403 6853 16081 11716 959 958 956 953 951 950 948 947 945 943 19210 16252 939 938 936 935 16251 8023 12795 12797 12798 8022 26509 933 929 926 923" /><route id="bg_r_bg_1967" edges="1961 5353 -1959 -18398 1957 6518 19380 3240 3241 3243 3244 337 3230 317 3246 340 2085 3248 3250 3251 3252 3254 3257 3259 20263 3261 3263 16404 3265 3267 16406 3268 3271 2005 6871" /><route id="bg_r_bg_1966" edges="1404 3507 3509 3511 3513 2042 23014 22713 22710 28941 6313 4956 4812 3643 6854 2153 2948 5403 6853 16081 961 13531 5920 19322 2522 5921 3418 4088 5917 16084 16854 1928 -27347 1721" /><route id="bg_r_bg_1965" edges="14652 1757 4825 16633 4987 5983 5410 976 5993 49 52 -16830 2117 2119 2121 1746 2122 2124 2125 2981 3283 3204" /><route id="bg_r_bg_1964" edges="3432 1532 1533 1534 10990 4091 3423 6409 2524 13498 6800 6036 968 966 964 10971 29110 29109 16488 11716 959 957" /><route id="bg_r_bg_1963" edges="25438 1741 1739 1737 31236 1734 1732 19522 19524 1731 29207 1729 1727 1725 1722 28302 3475 5924 31218 6708 4038 27191 5417 17234 17237 17230 17212 6362 4451 17444 13390 2813 5472 3245 3159 7802 16235 7803 1959 1961 -11165" /><route id="bg_r_bg_1962" edges="16380 7899 9509 15573 31125 5678 5676 3208 5675 6840 2717 87 3771 6590 29071 29072 6592 1471 1311 6042 1951 18220 5360 1657 1423 6438 5878 15281 1504 29081 1507 1509 1511 1513 14402 1514 18417 1517 1519 1521 1524 1525 18268 14646 16855 1531 1532 1533 1535 1537 1539 -16838 2114" /><route id="bg_r_bg_1961" edges="615 4409 4413 -18408 -15246 3589 20796 84 6516 6517 16233 1318 16494 6046 1957 6518 19380 3240 3241 3243 3244 338 15175 2812 2810 2808 3904 3906" /><route id="bg_r_bg_1960" edges="4419 5431 -18079 -18083 -18084 -18092 -18094 -20700 -20740 5425 3635 5427 2143 2938 5430 580 581 4110 4112 951 -27173" /><route id="bg_r_bg_1959" edges="11696 11691 22710 28941 6313 4956 4812 3643 6854 2153 2948 5403 6853 16081 961 13531 5920 19322 2522 5921 3418 4088 5917 16084 16854 1927 3475" /><route id="bg_r_bg_1958" edges="-18076 5431 -18079 -18083 -18084 -18092 -18094 -20700 6372 2061 2111 2109 2107 2105 2103 586 2101 2100 955 2098 2096 2094 2092 2089 1519 1521 1524 1525 18268 14646 16854 1928 1930 1932 1726 1934 1893 1936 1938 8143 3268 3270 16408 3273 3275 16411 20254 3197 3199 3200 3203 3205 1922 3206 17095 -29227 -17277" /><route id="bg_r_bg_1957" edges="5143 5144 6428 6676 5162 20577 5932 6674 923 3771 6590 29071 29072 6592 1471 1311 6042 1951 18220 5360 1657 1423 6438 5878 15281 1504 29081 1507 1509 1511 1513 14402 1514 18417 1517 1519 1521 1524 1525 18268 14646 16855 1531 1532 1533 1535 1537 1539 1540 3720 3718" /><route id="bg_r_bg_1956" edges="2093 2514 -27184 -27182 -27187 -27173 -27166 -27101 5833 -12672 -23153 2140 2138 2137 2135 -9471 -15966 -18649 -18652 -14623 -19229 14619 8093" /><route id="bg_r_bg_1955" edges="17235 4664 1502 1521 1524 1525 18268 14646 16855 1531 1532 1533 1535 1537 1539 -16838 -16830 2117 2119 2121 1746 2122 2123 3988" /><route id="bg_r_bg_1954" edges="-16224 -28921 11456 11461 12837 9500 3215 15596 5675 6840 2717 87 3771 6590 29071 29072 6592 1471 1311 6042 1951 18220 5360 1657 1423 6438 5878 15281 1504 29081 1507 1509 1510 4449 6364 2091 4661 6634 5922 10976 -27386" /><route id="bg_r_bg_1953" edges="744 -26638 2022 2020 3624 2224 5930 1430 1427 2714 921 2716 2718 3214 3212" /><route id="bg_r_bg_1952" edges="2644 2642 22753 5984 4825 16633 4987 5983 5410 976 5993 49 52 2115 3434 2421 2435 2566 1732 19522 19524 1730" /><route id="bg_r_bg_1951" edges="6038 6036 967 5406 11508 1862 3646 10960 3645 11687 2059 3641 3519 3639 16090 1392 11495 2112 3637 3636 18303 18306 11483 11481 3632 2489 3115 3117" /><route id="bg_r_bg_1950" edges="8022 26509 933 930 29071 29072 6592 1471 1311 6042 1951 18220 5360 1657 1423 6438 5878 15281 1504 29081 1507 1509 1511 1513 14402 1514 18417 1517 1519 1521 1524 1525 18268 14646 16855 1531 1532 1533 1535 1537 1539 1541 53 1542 29346 1546 1547 31333 1268 -27806 4176" /><route id="bg_r_bg_1949" edges="301 29031 13390 2812 2810 2809 1512 5828 29234 6366 2095 4659 6797 11718 11730 11715 11694 16080 11697 11689 11702 11699 16079 11504 11514" /><route id="bg_r_bg_1948" edges="2404 2406 2408 2414 2412 2410 -18631 111 -19190 14620 5149 3666 4175 15960 9470 9469 11484 17248 3633 17249 9223 -17253 -16089 -20742 -23126 -25996 11496 11494 11491 11498 11501 11502 11504 11514 11506 11513 1861 1859 965 4397 4399 6409 2523 6079 2440 2438" /><route id="bg_r_bg_1947" edges="3205 1921 1920 3284 17309 3281 3280 20294 20325 2012 2010 2008 2006 17569 2003 2002 19525 2000 1998 1371 1997 1996 1529" /><route id="bg_r_bg_1946" edges="5503 16155 -18466 -29039 -15111 4836 5954 5955 6246 -8894 18237 16035 -18245 -16031 -16023 -16027 -27623 -27577 -27568 1764 41 1767" /><route id="bg_r_bg_1945" edges="10964 10962 11702 11699 16079 11704 11692 17036 11696 11691 22712 11713 11710 31162 30412 11729 11708 16074 4358 6549 3572 6703" /><route id="bg_r_bg_1944" edges="16098 -27087 16097 -17253 -16089 -20742 -23126 -25996 11496 11494 11491 11498 11501 11502 11504 11514 11506 11513 11510 -27464 -27522 -27506 -27503 2612 4985 5982 1755 6091 5658 3462 -14987" /><route id="bg_r_bg_1943" edges="13009 2081 3723 2080 29181 9201 29225 29226 3513 2042 23014 22713 22712 11713 11710 31162 30413 6547 -25459" /><route id="bg_r_bg_1942" edges="-15103 -15099 -3547 -5719 -6092 -14994 -14991 -14987 -13565 -13567 -13566 -27639 5983 5410 977 975 973 971 970 968 966 964 10971 29110 29109 16488 11716 959 958 956 953 951 950 948 947 945 943 19210 16252 939 938 936 935 16251 8023 12795 12797 12798 8022 26509 933 929 926 924 89 921 2716 2718 3214 3212 3210 6400 6402 19406 9517 7897 9513 9434" /><route id="bg_r_bg_1941" edges="5933 20575 1263 -22281 5163 2720 1431 5161 4646 10583 744 2024 5155 5154 5153 5175 907 9499 9501 7901 6284-AddedOnRampEdge 6284 6282" /><route id="bg_r_bg_1940" edges="5081 1559 1561 2665 848 847 844 28202 843 841 17142 17158 17138 17156 987 985 983 981 979 977 975 973 971 970 968 966 964 10971 29110 29109 16488 11716 959 958 956 953 951 -27173 19207 5394 5392 5391 5389 5387 1655 29364 17645 8160 12804 10720 557 559 6851 1747 4316 4317 4319" /><route id="bg_r_bg_1939" edges="15217 15216 340 2085 3248 3250 3251 3252 3254 3257 3258 28298 1721" /><route id="bg_r_bg_1938" edges="6312 -18094 -20700 6372 2061 -25996 11496 1392" /><route id="bg_r_bg_1937" edges="18267 1632 5924 31218 6708 4038 27191 5417 17234 17237 17230 17212 6363 18416 3412 6365 2515 6367 6031 954 6369 5397 583 4004 2943 2148 6371 3638 -20740 -20738 11535 16962 -22733 -1326 3732 22724 22717 6877 19189 13015 5909 16385 5137 5111 3331 9172" /><route id="bg_r_bg_1936" edges="1918 1274 3285 17305 1920 3284 17309 3281 3280 20294 20325 2012 2010 2008 2006 17569 2003 2002 19524 1731 29207 1729 1727 1725 1722 28302 3475 5924 31218 6708 4038 27191 5417 17234 17237 17230 17212 6362 -17439 -12191 -12190 -27184 -27182 -27187 -27173 -27166 -27101 5833 -12672 -23153 2140 2138 2137 2135 -9471 -15966 -18649 -18652 -14623 -19229 14619 -15841 -17658" /><route id="bg_r_bg_1935" edges="3507 3508 1401 1399 9204 1334 1396 9205 1391 1478 1480 1482 1484 1486 2102 5396 4111 19207 5394 5392 5391 5389 5387 1655 29364 17645 8160 12804 12803 12800 15325 8022 26509 933 929 926 924 89 921 2716 2718 3214 3212 3210 6400 6402 19406 9516 -17634 -16211 2545" /><route id="bg_r_bg_1934" edges="1450 5624 -18504 1448 4838 18501 3345 4835 25633 4330 10994 16152 3997 4833 3548 4832 1905 16142 4431 3464 4830 4828 1757 4826 2615 2640 4824 4822 4820 3565 4818 16092 4815 4814 4812 3643 6854 2153 2948 5403 6853 16081 961 13531 5920 19322 2522 -19475 -26115 -26144 2090 3413 1516 17212 6362 4451 17444 13390 2813 5473 16254 6468 16253" /><route id="bg_r_bg_1933" edges="6699 -25473 -25477 -25481 4359 16075 5870 6306 31157 30415 31158 11709 2046 3508 1401 1399 9204 1334 1396 9205 1391 1478 1480 1482 1484 1486 2102 5396 4111 19207 5394 5392 5391 5389 5387 1655 29364 17646" /><route id="bg_r_bg_1932" edges="20294 20325 2012 2010 2008 2006 17569 2003 2002 19525 2000 1998 1371 1997 1996 1530 10984 10981 10978 10977 10974 10973 10970 10969 10966 10964 10962 11702 11699 16079 11704 11692 17036 11696 11691 22712 11713 11710 31162 30412 11729 11708 16074 11722 11712 11727 19310 598 16204 -13722" /><route id="bg_r_bg_1931" edges="208 22681 681 -19358 -22784 -22785 -16986 -19368 -29217 -29219 -19360 -19367 -18079 -18083 -18084 -18092 -18094 -20700 6372 2061 -25996 11496 11494 11491 11498 11501 11502 3643 6854 2153 2948 5403 6853 16081 961 13531 5920 19322 2522 5922 -10975" /><route id="bg_r_bg_1930" edges="6839 920 919 917 913 3215 15596 5675 6840 2717 87 3771 6590 29071 29072 6591 6633 8020 6994 6517 16233 1318 16494 6046 1957 6518 -26924" /><route id="bg_r_bg_1929" edges="6727 9699 7777 7775 16250 7863 16249 7795 16247 7856 7858 16240 7860 7859 7802 16235 7803" /><route id="bg_r_bg_1928" edges="1856 6726 1923 1921 1920 3284 17309 3281 3280 20294 20325 2012 2010 2008 2006 17569 2003 2002 19525 2000 1998 1371 1997 1996 1530 10985 5917 16084 16856 1632" /><route id="bg_r_bg_1927" edges="-30411 -22117 -25462 -25459 -25456 30415 31158 16971 16864 22710 28941 6313 4956 4812 3643 6854 2153 2948 5403 6853 16081 961 13531 5920 19322 2522 5921 3418 4088 5917 16084 16854 1928 1930 1932 1726 1934 1893 1935 1895 3264 20258 3186 6359 6361 3439 6522 6422 6524 6001 4472" /><route id="bg_r_bg_1926" edges="7003 559 6850 5934 6811 12800 15325 8021 6592 1471 1311 6042 1951 18220 5360 1657 1423 6438 5878 15281 1504 29081 1507 1509 1510 4449 6364 2091 4661 6634 5922 10976 -27386" /><route id="bg_r_bg_1925" edges="3465 3464 4830 4828 1757 4825 16633 4987 5983 5410 977 975 973 971 970 968 966 963 5404" /><route id="bg_r_bg_1924" edges="10985 11737 11735 11720 5922 10976 4399 6409 2524 13498" /><route id="bg_r_bg_1923" edges="3155 1649 19382 -26904 -22604 -22613 -18131 -19893 -14777 17645 8160 12804 10721 21152 5913 5914 15791 111 8094 8088-AddedOnRampEdge 8088 8076" /><route id="bg_r_bg_1922" edges="984 3458 1266 3985 5653 982 5655 5658 3462 4429 1902 6092 5719 3547 6095 3996" /><route id="bg_r_bg_1921" edges="4665 3334 381 217 29029 -26963 2085 3248 3250 3251 3252 3254 3257 3258 28298 1722" /><route id="bg_r_bg_1920" edges="1898 3488 17158 17138 17156 -13625 3907 3458 1265 1267 1270 25436 3988 1744 1743 25438 1741 1738 6419 6859" /><route id="bg_r_bg_1919" edges="3230 317 3246 340 2085 3248 3250 3251 3252 3254 3257 3259 20263 3261 3263 16404 3265 3267 16406 3268 3270 16408 3273 3275 16411 20254 3197 3199 3200 3203 3205 1922 3206 17096" /><route id="bg_r_bg_1918" edges="1539 1540 3721 2433 10992 10990 4091 3423 6409 2524 13498 6800 6036 967 5406 11508 1862 3646 10960 3645 11687 2059 3641 3519 3639 16090 1392 11495 2112 3638 6373 6312 1330 3722 6374 4421 6376 6305 5868 4360 -19361 2504" /><route id="bg_r_bg_1917" edges="6360 6657 3184 3263 16404 3265 3267 16406 3268 3271 2005 6872 1737 31236 1734" /><route id="bg_r_bg_1916" edges="3414 3412 6364 2091 4661 6634 5922 10976 4399 6409 2523 6079 2440 2438 2436 971 969" /><route id="bg_r_bg_1915" edges="3819 -13550 -13634 -8894 18237 16035 -18245 -16031 -16023 -16027 -27623 -27577 -27568 -27565 -27557 -27561 -27550 -25484 -27543 -27535 -27539 -16574 11724 16073 11726 2056 3498 1407 2967 591 2968 -19368 -19361 -19356 3128 9457 3676 3618 3860 3478 2037" /><route id="bg_r_bg_1914" edges="1933 1729 1727 1725 1722 28302 3475 5924 31218 6708 4038 27191 5417 17234 17237 17230 17212 6362 4451 17444 13390 2813 5472 3244" /><route id="bg_r_bg_1913" edges="3571 3570 3567 3566 1861 1859 965 4397 4400 3421 4090 10988 1533 1535 1537 1538 2434 2419 2422 16807 6871 6418" /><route id="bg_r_bg_1912" edges="6476 5655 -13567 -13566 -27639 -16627 -14716 2613 2636 15046 11518 11508 1862 11512 4818 16092 4815 4813 11692 17036 11696 11691 22712 11713 11710 31162 -17178 2049 2051 2053 2055 -27784" /><route id="bg_r_bg_1911" edges="16155 17165 17164 17162 17144 17160 17142 17158 17138 17156 987 985 983 981 978 1752 -27639 -16627 -14716 2613 2636 15046 11518 11508 1862 3646 10960 3645 11687 2059 3641 3519 3639 16090 1392 11495 2112 3637 3636 18303 18306 11483 11481 11477 11478 -9471 -15966 -18649 -18652 -14623 -19229 14619 -15841 109 18647 3839 -2415 -2408 -13228 -4310" /><route id="bg_r_bg_1910" edges="913 3215 15596 5675 6840 2717 86 88 91 93 -22281 -18027 -18023 -22292 -22298 -18014 -18632 -18631 111 -19190 14620 5149 3666 4175 15960 9470 -15974 -14669 -26672 2493 1324 22738 1327 13012" /><route id="bg_r_bg_1909" edges="-27550 5260 2648 2645 2644 2642 22753 5984 4825 16633 4987 5983 5410 976 5993 50 3719 2454 13520 2432 1538" /><route id="bg_r_bg_1908" edges="1511 1513 -12191 4449 6365 2515 6367 6031 954 6369 5397 583 4004 2943 2148 6371 3638 6373 6312 1330 3722 6374 4421 6376 6305 5868 4360 588 -19368" /><route id="bg_r_bg_1907" edges="3679 -22680 -18644 -18643 -19358 -22784 -22785 -16986 -19368 -29217 -29219 -19360 -19367 -18079 -18083 -18084 -18092 -18094 -20700 6372 2061 2111 2109 2107 2105 2103 586 2101 2100 955 2098 2096 2094 2092 2089 1519 1521 1524 1525 18268 14646 16854 1928 1930 1932 1726 1934 1893 1936 1938 8143 3268 3270 16408 3273 3275 16410 3276 3278 20294 20325" /><route id="bg_r_bg_1906" edges="-18020 5145 566 4344 13228 2408 2415 3841 8087 5133 10870 3525 9475 5135 5137 5111 3331 9171 3672 16975 3673 3675 -19344 -19336 3130 2504 588 6378" /><route id="bg_r_bg_1905" edges="6409 2524 13498 6800 6036 967 5406 11508 1862 3646 10960 3645 11687 2059 3641 3519 3639 16090 1392 11495 2112 3638 -20740 -20738 11535 16962 -22733 -1326 -19614 -4417 4418 6576" /><route id="bg_r_bg_1904" edges="-30411 -22117 -25462 -25459 -25456 30415 31158 16971 16864 22710 28941 6313 4956 4812 3643 6854 2153 2948 5403 6853 16081 11716 959 958 956 953 951 950 948 947 945 943 19210 16252 939 938 936 935 16251 8023 12795 12797 12798 8022 26509 933 929 926 924 89 921 2716 2718 3214 3212 3210 6400 6402 7796 7813 -18409 -4409 -17635 616 15369 -13451" /><route id="bg_r_bg_1903" edges="-17031 12669 -22733 -1326 -19614 -4417 -19824 -27117 22715 2499 2501 2503 2504 587 589 590 593 22789 595 597 598 16204 6553 9685" /><route id="bg_r_bg_1902" edges="-10975 19320 11733 11718 11731 6033 4657 957 4656 4652 1486 2102 5396 4111" /><route id="bg_r_bg_1901" edges="3467 3465 3464 4830 4828 1757 4826 2615 2640 4824 4822 4820 3565 4818 16092 4815 4814 4812 3643 6854 2153 2948 5403 6853 16081 11716 959 958 956 953 951 950 948 947 944 6584 1507 1509 1510" /><route id="bg_r_bg_1900" edges="-18405 2544 2546 -17622 9517 9509 15573 31125 5678 5676 3208 5675 6840 2717 86 88 92 6675 4331 4333 4334" /><route id="bg_r_bg_1899" edges="2494 2493 1324 22738 1328 -18094 -20700 6372 2061 -25996 11496 11494 11491 11498 11501 11502 3643 6854 11701" /><route id="bg_r_bg_1898" edges="15285 943 19210 16252 940 -17644 -17655 -22187 -22691 -9471 9470 -15974 2489 3116 3524 2444 15084 2446 3525 9475 5135" /><route id="bg_r_bg_1897" edges="10929 10926 -12707 -18504 1448 4838 18501 3345 4837 5951 5727 4326" /><route id="bg_r_bg_1896" edges="3183 3184 3262 1933 1728 1998 1370 1535 1537 1539 1541 53 1542 29346 1546 1547 31333 1268 1549 1550 1552 1554 1342 1557 602 601" /><route id="bg_r_bg_1895" edges="11506 11513 1862 3646 10960 3645 11687 2059 3641 3519 3639 16090 1392 11495 2112 3637 3636 18303 18306 11483 11481 11477 11478 -9471 -15966 -18649 -18652 -14623 -19229 14619 -15841 109 18647 3839 -2415 -2408 -13228 13227" /><route id="bg_r_bg_1894" edges="5034 4815 4813 11692 17036 11696 11691 22707 2041 31180 3515 1398 9191 9189 16491 9193 9196 9198 22671 2967 590 592" /><route id="bg_r_bg_1893" edges="3279 3200 3202 3281 3280 20294 20325 2012 2010 2008 2006 17569 2003 2002 19524 1731 29207 1729 1727 1725 1722 28302 3475 5924 31218 6708 4038 27191 5417 17234 17237 17230 17212 6362 4451 17444 13390 2813 5473 16254 6468 16253 5875 6437 1425 1658 1656 17395 936 935 16251 8023 12795 12797 12798 8022 26509 933 929 925 4331 4333 4334 4337 1263 -22281 5163 2719" /><route id="bg_r_bg_1892" edges="5398 5400 6929 959 958 956 953 951 950 948 947 945 943 19210 16252 939 938 936 934 5360 1656 17395" /><route id="bg_r_bg_1891" edges="4016 5408 5410 976 5993 49 52 2115 3434 2421 2435 2566 1732 19522 19524 1731 29207 1729 1727 1725 1722 28302 3475 5923 3257 3258 28298" /><route id="bg_r_bg_1890" edges="17646 1950 23961 8024 1951 18220 5359 5362 3236 1660 1653 1426 3238 3239 3240 3241 3243 3244 337 3230 317 3246 340 2085 3248 3250 3251 3252 3254 3257 3259 20263 3261 3263 16404 3265 3267 16406 3268 3270 16408 3273 3275 16411 20254 3197 3199 3200 3203 3205" /><route id="bg_r_bg_1889" edges="7859 7802 16235 1957 6519 16237 3235 4461 16239 3153 5319" /><route id="bg_r_bg_1888" edges="1559 1561 2665 848 847 844 28202 843 841 3544 -2691 -2689 2690 -14994 1903" /><route id="bg_r_bg_1887" edges="-4417 4418 6577 19306 22718 3730 6308 6575 11477 11478 11475 22175 445 571 -26702 939 937 1421 1423" /><route id="bg_r_bg_1886" edges="105 8055 110 2409 5147 4312 4340 4342 4344" /><route id="bg_r_bg_1885" edges="-17656 5913 5914 15791 111 -19190 14620 5149 3666 4175 15960 9470 9469 11484 17248 3633 17249 9223 -17253 -16089 -20742 -23126 -25996 11496 11494 11491 11498 11501 11502 11504 11514 11506 11513 11510 -27464 -27522 -27506 -27503 2612 4985 5982 1755 6091 5658 3462 4429 1903 1901" /><route id="bg_r_bg_1884" edges="28299 28302 3475 5924 31218 6709 18268 14647 14644 11737 11735 11720 19320 11733 11718 11731 6033 4657 957 4656 4652 -18279" /><route id="bg_r_bg_1883" edges="3234 3232 3160 3230 317 3246 340 2085 3248 3249 17235 4664 1502 1522 4083" /><route id="bg_r_bg_1882" edges="1731 29207 1728 1998 1370 1534 10990 4091 3423 6409 2523 6079 2441 2455 6808 6803 6039 974 5409 4019 2612 4985 5982 1755 6091 5658 3462 4429 1902 6092 5719 3547 6095 3996 8904 4328 5952 3343 15080 15178 1445 6096" /><route id="bg_r_bg_1881" edges="2078 1399 13009 2081 3733 13012 3732 22725 3730 6308 6575 11477 11478 -9471 -15966 -18649 -18652 -14623 -19229 14619 -15841 -17658 15790 5912 7003 559 6851 1747 4316 4317 4319" /><route id="bg_r_bg_1880" edges="9464 -3841 -2415 -2408 -13228 -4310 -26664 -25604 5144 6428 6677 1433 1432 1430 1427 2715 91" /><route id="bg_r_bg_1879" edges="6040 2437 6038 6035 4397 4399 6409 2524 13498 6799" /><route id="bg_r_bg_1878" edges="-17253 18303 -17252 16098 4443 2141 2936 19822 4445 579 19208 949 4446 4448 2513 4450 14402 1514 18417 1517 1519 1521 1524 1525 18268 14646 16855 1531 1532 1533 1535 1537 1538 2434 2420 2435 2566" /><route id="bg_r_bg_1877" edges="3840 2412 2410 -18631 111 -19190 14620 5149 3666 4175 15960 9470 -15974 -14669 -26672 -26676 -29236 -13013 2496 22715 2499 2501 2503 -20789" /><route id="bg_r_bg_1876" edges="2517 4660 4658 2097 6032 4114 -27187 950 948 947 945 943 19210 16252 939 937 1421 1422 1425 1659" /><route id="bg_r_bg_1875" edges="4846 4844 3406 4842 4841 16286 1448 4838 18501 3345 4835 25633 4330 10994 16152 3997 4833 3548 4832 1905 16142 4431 3464 4830 4828 1757 4826 2615 2640 4824 4822 4820 3565 4818 16092 4815 4814 4812 3643 6854 11701 2151 2946" /><route id="bg_r_bg_1874" edges="2565 2563 1537 1539 1541 53 1542 29346 1546 1547 31333 1268 1549 1550 1552 1554 1341 1340" /><route id="bg_r_bg_1873" edges="-18008 -15782 7002 5914 15791 111 -19190 14620 5149 3666 4175 15960 9470 9469 11484 17248 3633 17249 9223 -17253 -16089 -20742 -23126 -25996 11496 11494 11491 11498 11501 11502 11504 11514 11506 11513 11510 -27464 -27522 15045 4018 5410 976 5993 49" /><route id="bg_r_bg_1872" edges="-18084 3723 2080 29181 9201 29225 29226 3513 2042 23014 22713 22712 11713 11710 31162 30412 11729 11708 16074 11722 11712 11727 19310 11724 16073" /><route id="bg_r_bg_1871" edges="5178 -23267 -23270 -26615 -17105 -26617 -18023 -22292 -22298 -18014 -18632 -18631 111 -19190 14620 5149 3666 4175 15960 9470 -15974 -14669 -26672 -26676 -29236 -13013 2495 19306 22717" /><route id="bg_r_bg_1870" edges="4813 4956 4812 3643 6854 2153 2948 5403 6853 16081 961 13531 5920 19322 2522 5921 3418 4088 5917 16084 16856 1632 5923 3257" /><route id="bg_r_bg_1869" edges="-26425 -26422 -18444 -29227 3287 1275 3285 17305 1920 3284 17309 3282 17303 2980 3990 -26378 -26393 -26387 -27269 -27268 2116 1542 29346 1545" /><route id="bg_r_bg_1868" edges="-16155 -16679 -16676 -14627 3692 26583 2666 5080 26592 601 6629 1340 4021 6017 1914 4426 1266 3986 5995 1749 49 52 2115 3434 2421 2435 2566 1732 19522 19524 1731 29207 1729 1727 1725 1722 28302 3475 5924 31218 6708 4038 27191 5417 17234 17237 17230 17212 6362 4452 15219 454 341 4453 16242 15218 3167 3150 3165" /><route id="bg_r_bg_1867" edges="5162 20577 5932 6674 923 3771 6590 29071 29072 6592 1471 1311 6042 1951 18220 5359 5362 3236 1660 1653 1426 3238 3239 3240 3241 3243 3244 337 3230 317 3246 340 2085 3248 3249 17234 17236" /><route id="bg_r_bg_1866" edges="4399 -13501 4400 3421 4090 10989 10987 10985 5917 16084 16854 1928 1930 1932 1726 1934 1893 1935 1895 3264 20258 3186 6359 6361 3439 6522" /><route id="bg_r_bg_1865" edges="-3841 3841 8087 5134 7722 19257 9442 14620 5149 3666 4175 15960 9471 11475 22174 2935 22168 2936 19822 4445 579 19208 949 4446 29234 6366 2096" /><route id="bg_r_bg_1864" edges="5436 22783 680 6379 2975 2976 2977 5637 396 1417" /><route id="bg_r_bg_1863" edges="11697 11689 11702 11699 16079 11504 3645" /><route id="bg_r_bg_1862" edges="3340 -15076 -15110 -15107 -15103 -15099 -3547 -5719 -6092 -14994 -14991 -14987 -13565 -13567 -13566 -27639 5983 5410 977 975 973 971 970 968 966 964 10971 29110 29109 16488 961 13531 5920 19322 2522 -19475 -26115 -26144 2090 3413 1516 217 29029 -17714" /><route id="bg_r_bg_1861" edges="5988 -16022 -16572 5986 5984 4825 16633 4987 5983 5410 976 5993 49 52 -16830 2117 2119 2121 1745 2428 5997 2011 3277 20254 3196 6000 6001" /><route id="bg_r_bg_1860" edges="2565 2564 6357 5724 1534 10990 4091 3423 6409 2524 13498 6800 6036 967 5406 11508 1862 3646 10960 3645 11687 2059 3641 3519 3639 16090 1392 11495 2112 3638 6373 6312 1330 3722 6374" /><route id="bg_r_bg_1859" edges="6521 5146 6873 3190 3271 2005 6872 1736 2424 2116 1542 29346 1546 1547 31333 1268 1549 1550 1552 1554 1341 1339 841 3545 16153 6813 4002 6508 4324 5949 3338 17167" /><route id="bg_r_bg_1858" edges="2116 1542 29346 1546 1547 31333 1268 -27803 4424 3908 986 4427 2688 4430 4432 4434 29065 1909 29066 4032" /><route id="bg_r_bg_1857" edges="2614 22752 -16550 -16552 -30411 -22117 -25462 -25459 -25456 -17178 -25947 -25951 9193 1406" /><route id="bg_r_bg_1856" edges="2115 3434 2421 2435 2566 1732 19522 19525 2000 1998 1371 1997 1996 1530 10984 10981 10978 10977 10974 10973 10970 10969 10966 10964 10962 11702 11699 16079 11687 2059 3641 3519 3639 16090 11493 1394 9187 9186 1398 9191 9189 16491 -25916 2074" /><route id="bg_r_bg_1855" edges="3616 3675 -19344 -19336 3130 2504 587 589 590 593 22789 595 597 11725 6551 3574 6705 6481 5260 2647 6706 5990 1765 6694 5666 3473 -16026" /><route id="bg_r_bg_1854" edges="3646 10960 3645 11687 2059 3641 3519 3639 16090 1392 11495 2112 3637 3636 18303 18306 11483 11481 11477 11478 -9471 -15966 -18649 -18652 -14623 -19229 14619 -15841 110 2409 5147 4311 15053 4339 1262 561 5163 2720 1431 5161 4645" /><route id="bg_r_bg_1853" edges="-16553 -16570 -16558 -25466 -25469 -25473 -25477 -25481 4359 16075 5870 6306 31157 30415 31158 16971 16864 22710 